<?xml version="1.0" encoding="UTF-8"?>

<!-- generated on 2021-10-25 09:17:33 by Eclipse SUMO netedit Version 1.10.0
<configuration xmlns:xsi="http://www.w3.org/2001/XMLSchema-instance" xsi:noNamespaceSchemaLocation="http://sumo.dlr.de/xsd/netconvertConfiguration.xsd">

    <output>
        <output-file value="D:\sumo\bin\SUMO\Cicle\circle.net.xml"/>
    </output>

    <processing>
        <offset.disable-normalization value="true"/>
    </processing>

    <junctions>
        <no-turnarounds value="true"/>
    </junctions>

    <report>
        <aggregate-warnings value="5"/>
    </report>

</configuration>
-->

<net version="1.9" junctionCornerDetail="5" limitTurnSpeed="5.50" xmlns:xsi="http://www.w3.org/2001/XMLSchema-instance" xsi:noNamespaceSchemaLocation="http://sumo.dlr.de/xsd/net_file.xsd">

    <location netOffset="0.00,0.00" convBoundary="-8.10,16.95,91.53,87.15" origBoundary="10000000000.00,10000000000.00,-10000000000.00,-10000000000.00" projParameter="!"/>

    <edge id=":gneJ21_0" function="internal">
        <lane id=":gneJ21_0_0" index="0" speed="13.89" length="0.85" shape="28.37,85.33 28.59,85.45 28.76,85.50 28.93,85.52 29.18,85.51"/>
    </edge>
    <edge id=":gneJ22_0" function="internal">
        <lane id=":gneJ22_0_0" index="0" speed="4.12" length="1.39" shape="66.32,83.76 66.67,83.71 66.99,83.59 67.27,83.40 67.51,83.14"/>
    </edge>
    <edge id=":gneJ23_0" function="internal">
        <lane id=":gneJ23_0_0" index="0" speed="13.89" length="0.97" shape="87.98,56.42 88.15,56.19 88.24,56.01 88.29,55.82 88.31,55.54"/>
    </edge>
    <edge id=":gneJ24_0" function="internal">
        <lane id=":gneJ24_0_0" index="0" speed="3.92" length="2.25" shape="89.78,29.19 89.73,28.59 89.51,28.12 89.13,27.77 88.57,27.55"/>
    </edge>
    <edge id=":gneJ25_0" function="internal">
        <lane id=":gneJ25_0_0" index="0" speed="13.89" length="0.32" shape="58.12,20.07 58.03,20.04 57.97,20.03 57.90,20.03 57.81,20.02"/>
    </edge>
    <edge id=":gneJ26_0" function="internal">
        <lane id=":gneJ26_0_0" index="0" speed="13.89" length="0.91" shape="23.30,18.58 23.03,18.58 22.84,18.60 22.67,18.66 22.43,18.79"/>
    </edge>
    <edge id=":gneJ27_0" function="internal">
        <lane id=":gneJ27_0_0" index="0" speed="4.02" length="1.69" shape="-5.69,34.91 -6.04,35.17 -6.29,35.49 -6.44,35.87 -6.49,36.31"/>
    </edge>
    <edge id=":gneJ28_0" function="internal">
        <lane id=":gneJ28_0_0" index="0" speed="4.00" length="1.75" shape="-6.32,66.40 -6.27,66.85 -6.11,67.24 -5.84,67.56 -5.46,67.81"/>
    </edge>

    <edge id="gneE18" from="gneJ21" to="gneJ22" priority="-1">
        <lane id="gneE18_0" index="0" speed="13.89" length="37.18" shape="29.18,85.51 66.32,83.76"/>
    </edge>
    <edge id="gneE19" from="gneJ22" to="gneJ23" priority="-1">
        <lane id="gneE19_0" index="0" speed="13.89" length="33.66" shape="67.51,83.14 87.98,56.42"/>
    </edge>
    <edge id="gneE20" from="gneJ23" to="gneJ24" priority="-1">
        <lane id="gneE20_0" index="0" speed="13.89" length="26.39" shape="88.31,55.54 89.78,29.19"/>
    </edge>
    <edge id="gneE21" from="gneJ24" to="gneJ25" priority="-1">
        <lane id="gneE21_0" index="0" speed="13.89" length="31.35" shape="88.57,27.55 58.12,20.07"/>
    </edge>
    <edge id="gneE22" from="gneJ25" to="gneJ26" priority="-1">
        <lane id="gneE22_0" index="0" speed="13.89" length="34.54" shape="57.81,20.02 23.30,18.58"/>
    </edge>
    <edge id="gneE23" from="gneJ26" to="gneJ27" priority="-1">
        <lane id="gneE23_0" index="0" speed="13.89" length="32.41" shape="22.43,18.79 -5.69,34.91"/>
    </edge>
    <edge id="gneE24" from="gneJ27" to="gneJ28" priority="-1">
        <lane id="gneE24_0" index="0" speed="13.89" length="30.09" shape="-6.49,36.31 -6.32,66.40"/>
    </edge>
    <edge id="gneE25" from="gneJ28" to="gneJ21" priority="-1">
        <lane id="gneE25_0" index="0" speed="13.89" length="38.10" shape="-5.46,67.81 28.37,85.33"/>
    </edge>

    <junction id="gneJ21" type="priority" x="28.40" y="87.15" incLanes="gneE25_0" intLanes=":gneJ21_0_0" shape="29.26,87.11 29.11,83.91 27.63,86.76 28.20,87.03 28.41,87.09 28.63,87.12 28.90,87.12">
        <request index="0" response="0" foes="0" cont="0"/>
    </junction>
    <junction id="gneJ22" type="priority" x="67.88" y="85.29" incLanes="gneE18_0" intLanes=":gneJ22_0_0" shape="68.78,84.11 66.24,82.16 66.39,85.36 67.32,85.19 67.73,85.01 68.11,84.77 68.46,84.47">
        <request index="0" response="0" foes="0" cont="0"/>
    </junction>
    <junction id="gneJ23" type="priority" x="89.85" y="56.61" incLanes="gneE19_0" intLanes=":gneJ23_0_0" shape="89.91,55.63 86.71,55.45 89.25,57.39 89.66,56.81 89.77,56.58 89.84,56.34 89.88,56.03">
        <request index="0" response="0" foes="0" cont="0"/>
    </junction>
    <junction id="gneJ24" type="priority" x="91.53" y="26.63" incLanes="gneE20_0" intLanes=":gneJ24_0_0" shape="88.95,26.00 88.18,29.10 91.38,29.28 91.17,27.74 90.85,27.13 90.36,26.64 89.73,26.26">
        <request index="0" response="0" foes="0" cont="0"/>
    </junction>
    <junction id="gneJ25" type="priority" x="58.19" y="18.44" incLanes="gneE21_0" intLanes=":gneJ25_0_0" shape="57.74,21.62 58.50,18.51 58.27,18.46 58.19,18.44 58.11,18.43 58.01,18.43 57.87,18.42">
        <request index="0" response="0" foes="0" cont="0"/>
    </junction>
    <junction id="gneJ26" type="priority" x="22.44" y="16.95" incLanes="gneE22_0" intLanes=":gneJ26_0_0" shape="23.23,20.18 23.36,16.98 22.69,16.98 22.46,17.02 22.23,17.09 21.97,17.22 21.64,17.41">
        <request index="0" response="0" foes="0" cont="0"/>
    </junction>
    <junction id="gneJ27" type="priority" x="-8.10" y="34.45" incLanes="gneE23_0" intLanes=":gneJ27_0_0" shape="-8.09,36.32 -4.89,36.30 -6.48,33.52 -7.38,34.25 -7.69,34.69 -7.92,35.18 -8.05,35.72">
        <request index="0" response="0" foes="0" cont="0"/>
    </junction>
    <junction id="gneJ28" type="priority" x="-7.91" y="68.34" incLanes="gneE24_0" intLanes=":gneJ28_0_0" shape="-6.20,69.23 -4.73,66.39 -7.92,66.41 -7.73,67.58 -7.49,68.08 -7.15,68.52 -6.72,68.91">
        <request index="0" response="0" foes="0" cont="0"/>
    </junction>

    <connection from="gneE18" to="gneE19" fromLane="0" toLane="0" via=":gneJ22_0_0" dir="r" state="M"/>
    <connection from="gneE19" to="gneE20" fromLane="0" toLane="0" via=":gneJ23_0_0" dir="s" state="M"/>
    <connection from="gneE20" to="gneE21" fromLane="0" toLane="0" via=":gneJ24_0_0" dir="r" state="M"/>
    <connection from="gneE21" to="gneE22" fromLane="0" toLane="0" via=":gneJ25_0_0" dir="s" state="M"/>
    <connection from="gneE22" to="gneE23" fromLane="0" toLane="0" via=":gneJ26_0_0" dir="s" state="M"/>
    <connection from="gneE23" to="gneE24" fromLane="0" toLane="0" via=":gneJ27_0_0" dir="r" state="M"/>
    <connection from="gneE24" to="gneE25" fromLane="0" toLane="0" via=":gneJ28_0_0" dir="r" state="M"/>
    <connection from="gneE25" to="gneE18" fromLane="0" toLane="0" via=":gneJ21_0_0" dir="s" state="M"/>

    <connection from=":gneJ21_0" to="gneE18" fromLane="0" toLane="0" dir="s" state="M"/>
    <connection from=":gneJ22_0" to="gneE19" fromLane="0" toLane="0" dir="r" state="M"/>
    <connection from=":gneJ23_0" to="gneE20" fromLane="0" toLane="0" dir="s" state="M"/>
    <connection from=":gneJ24_0" to="gneE21" fromLane="0" toLane="0" dir="r" state="M"/>
    <connection from=":gneJ25_0" to="gneE22" fromLane="0" toLane="0" dir="s" state="M"/>
    <connection from=":gneJ26_0" to="gneE23" fromLane="0" toLane="0" dir="s" state="M"/>
    <connection from=":gneJ27_0" to="gneE24" fromLane="0" toLane="0" dir="r" state="M"/>
    <connection from=":gneJ28_0" to="gneE25" fromLane="0" toLane="0" dir="r" state="M"/>

</net>
